Version 4
SHEET 1 880 680
WIRE 128 -80 -48 -80
WIRE 368 -80 128 -80
WIRE 128 -64 128 -80
WIRE 128 48 128 16
WIRE 320 48 320 -64
WIRE 320 48 128 48
WIRE 368 48 368 16
WIRE -48 64 -48 0
WIRE 128 112 128 48
WIRE 224 112 128 112
WIRE 368 112 288 112
WIRE 80 192 -80 192
WIRE 368 208 368 112
WIRE -80 320 -80 272
WIRE 128 320 128 208
WIRE 368 320 368 288
FLAG -80 320 0
FLAG 128 320 0
FLAG 368 320 0
FLAG -48 64 0
SYMBOL Misc\\signal -80 176 R0
WINDOW 3 24 104 Invisible 0
WINDOW 123 0 0 Left 0
WINDOW 39 0 0 Left 0
SYMATTR InstName V1
SYMATTR Value PULSE(0 3 0.0001 0.0001 0.0001 0.075 0.1)
SYMBOL Misc\\2N7002 80 112 R0
SYMATTR InstName U1
SYMBOL pmos 320 16 M180
SYMATTR InstName M1
SYMATTR Value BSS84
SYMBOL LED 352 48 R0
SYMATTR InstName D1
SYMATTR Value QTLP690C
SYMBOL res 112 -80 R0
SYMATTR InstName R1
SYMATTR Value 470
SYMBOL res 352 192 R0
SYMATTR InstName R2
SYMATTR Value 220
SYMBOL cap 288 96 R90
WINDOW 0 0 32 VBottom 0
WINDOW 3 32 32 VTop 0
SYMATTR InstName C1
SYMATTR Value 470µ
SYMBOL voltage -48 -96 R0
WINDOW 123 0 0 Left 0
WINDOW 39 0 0 Left 0
SYMATTR InstName V2
SYMATTR Value 5V
TEXT 504 -64 Left 0 !.tran 1S
