Version 4
SHEET 1 1316 680
WIRE 624 -128 496 -128
WIRE -16 -80 -144 -80
WIRE 128 -80 64 -80
WIRE 368 -80 128 -80
WIRE -144 -64 -144 -80
WIRE 128 -64 128 -80
WIRE 496 -48 496 -128
WIRE 128 16 0 16
WIRE 256 16 128 16
WIRE 368 16 320 16
WIRE 0 64 0 16
WIRE 128 64 128 16
WIRE 496 64 496 16
WIRE 608 64 496 64
WIRE 784 64 672 64
WIRE -144 80 -144 16
WIRE 416 80 416 -64
WIRE 496 80 496 64
WIRE 496 80 416 80
WIRE 784 80 784 64
WIRE 0 176 0 128
WIRE 128 176 128 128
WIRE 128 176 0 176
WIRE 368 208 368 16
WIRE 784 208 784 160
WIRE 320 256 320 16
WIRE 320 256 176 256
WIRE 128 320 128 272
WIRE 368 320 368 288
FLAG 784 208 0
FLAG 128 320 0
FLAG 368 320 0
FLAG -144 80 0
FLAG 496 160 0
FLAG 624 -48 0
SYMBOL Misc\\signal 784 64 R0
WINDOW 3 24 104 Invisible 0
WINDOW 123 0 0 Left 0
WINDOW 39 0 0 Left 0
SYMATTR Value PULSE(0 5 0.0001 0.0001 0.0001 0.075 0.1)
SYMATTR InstName V1
SYMBOL Misc\\2N7002 176 176 M0
SYMATTR InstName U1
SYMBOL pmos 416 16 R180
SYMATTR InstName M1
SYMATTR Value BSS84
SYMBOL LED 112 64 R0
SYMATTR InstName D1
SYMATTR Value QTLP690C
SYMBOL res 352 192 R0
SYMATTR InstName R2
SYMATTR Value 220
SYMBOL cap 320 0 R90
WINDOW 0 0 32 VBottom 0
WINDOW 3 32 32 VTop 0
SYMATTR InstName C1
SYMATTR Value 220µ
SYMBOL voltage -144 -80 R0
WINDOW 123 0 0 Left 0
WINDOW 39 24 44 Left 0
SYMATTR SpiceLine Rser=33
SYMATTR InstName V2
SYMATTR Value 5
SYMBOL res 512 176 R180
WINDOW 0 36 76 Left 0
WINDOW 3 36 40 Left 0
SYMATTR InstName R3
SYMATTR Value 10K
SYMBOL diode 480 -48 R0
SYMATTR InstName D2
SYMBOL diode 672 48 R90
WINDOW 0 0 32 VBottom 0
WINDOW 3 32 32 VTop 0
SYMATTR InstName D3
SYMBOL voltage 624 -144 R0
WINDOW 123 0 0 Left 0
WINDOW 39 0 0 Left 0
SYMATTR InstName V3
SYMATTR Value 0
SYMBOL LED -16 64 R0
SYMATTR InstName D4
SYMATTR Value QTLP690C
SYMBOL res 112 -80 R0
SYMATTR InstName R1
SYMATTR Value 220
SYMBOL res 80 -96 R90
WINDOW 0 0 56 VBottom 0
WINDOW 3 32 56 VTop 0
SYMATTR InstName R4
SYMATTR Value 0.01
TEXT 1216 -176 Left 0 !.tran 1S
